<configuration>
    <input>
        <net-file value="Eastway-Central.net.xml" />
        <route-files value="Eastway-Central.rou.xml" />
        <additional-files value="Eastway-Central.add.xml" />
    </input>
    <time-to-teleport value="-1"/>
</configuration>